<?xml version="1.0" encoding="utf-8"?>
<!DOCTYPE population SYSTEM "http://www.matsim.org/files/dtd/population_v5.dtd">

<population>
<person id="3">
	<plan type="car">
		<act type="h" x="-25000" y="0" link="1" end_time="06:42:02" />
		<leg mode="car">
			<route type="links">1 6 15 20</route>
		</leg>
		<act type="w" x="10000" y="0" link="20" end_time="08:58:30" />
		<leg mode="car">
			<route type="links">20 21 22 23 1</route>
		</leg>
		<act type="h" x="-25000" y="0" link="1" />
	</plan>
</person>

<person id="4">
	<plan type="car">
		<act type="h" x="-25000" y="0" link="1" end_time="05:58:30" />
		<leg mode="car">
			<route type="links">1 2 11 20 21 22 23</route>
		</leg>
		<act type="w" x="10000" y="0" link="20" end_time="07:58:30" />
		<leg mode="car">
			<route type="links">20 21 22 23 1</route>
		</leg>
		<act type="h" x="-25000" y="0" link="1" />
	</plan>
</person>

</population>
